Version 4
SHEET 1 880 680
WIRE 192 -48 64 -48
WIRE 416 -48 272 -48
WIRE -320 96 -464 96
WIRE -224 96 -320 96
WIRE -64 96 -144 96
WIRE 0 96 -64 96
WIRE 64 96 64 -48
WIRE 64 96 0 96
WIRE 112 96 64 96
WIRE 416 96 416 -48
WIRE 416 96 368 96
WIRE -320 112 -320 96
WIRE -320 192 -320 176
WIRE -64 192 -64 96
WIRE -464 208 -464 96
WIRE 0 240 0 96
WIRE 112 240 0 240
WIRE 448 240 368 240
WIRE 608 240 448 240
WIRE 656 240 608 240
WIRE 656 256 656 240
WIRE -320 288 -320 256
WIRE 448 288 448 240
WIRE -464 368 -464 288
WIRE -320 368 -320 352
WIRE -320 368 -464 368
WIRE -64 368 -64 256
WIRE -64 368 -320 368
WIRE 240 368 240 304
WIRE 240 368 -64 368
WIRE 448 368 448 352
WIRE 448 368 240 368
WIRE 656 368 656 336
WIRE 656 368 448 368
WIRE -320 432 -320 368
FLAG -320 432 0
FLAG 608 240 vs
SYMBOL PowerProducts\\LTC3525-3.3 240 144 R0
SYMATTR InstName U1
SYMBOL ind 176 -32 R270
WINDOW 0 32 56 VTop 2
WINDOW 3 5 56 VBottom 2
SYMATTR InstName L1
SYMATTR Value 10µ
SYMBOL cap 432 288 R0
SYMATTR InstName C1
SYMATTR Value 1000µ
SYMBOL diode -336 288 R0
SYMATTR InstName D1
SYMBOL diode -336 192 R0
SYMATTR InstName D2
SYMBOL diode -336 112 R0
SYMATTR InstName D3
SYMBOL cap -80 192 R0
SYMATTR InstName C2
SYMATTR Value 100n
SYMBOL current -464 288 R180
WINDOW 0 24 80 Left 2
WINDOW 3 24 0 Left 2
WINDOW 123 0 0 Left 0
WINDOW 39 0 0 Left 0
SYMATTR InstName I1
SYMATTR Value 20m
SYMBOL res -128 80 R90
WINDOW 0 0 56 VBottom 2
WINDOW 3 32 56 VTop 2
SYMATTR InstName R1
SYMATTR Value 1m
TEXT -216 0 Left 2 !.tran 0 100m 0
TEXT 584 160 Left 2 !.IC V(Vs)=0
